/*--------------------------------*- C++ -*----------------------------------*\
  =========                 |
  \\      /  F ield         | OpenFOAM: The Open Source CFD Toolbox
   \\    /   O peration     | Website:  https://openfoam.org
    \\  /    A nd           | Version:  6
     \\/     M anipulation  |
\*---------------------------------------------------------------------------*/
FoamFile
{
    version     2.0;
    format      ascii;
    class       volScalarField;
    object      p;
}
// * * * * * * * * * * * * * * * * * * * * * * * * * * * * * * * * * * * * * //

dimensions      [0 2 -2 0 0 0 0];

internalField   uniform 0;


boundaryField
{
    y1
    {
        type            cyclic;
    }


    y0
    {
        type            cyclic;
    }

    x0
    {
        type            cyclic;
    }


    x1
    {
        type            cyclic;
    }


    z0
    {
        type            cyclic;
    }



    z1
    {
        type            cyclic;
    }


}
































// ************************************************************************* //
