/*--------------------------------*- C++ -*----------------------------------*\
  =========                 |
  \\      /  F ield         | OpenFOAM: The Open Source CFD Toolbox
   \\    /   O peration     | Website:  https://openfoam.org
    \\  /    A nd           | Version:  6
     \\/     M anipulation  |
\*---------------------------------------------------------------------------*/
FoamFile
{
    version     2.0;
    format      binary;
    class       polyBoundaryMesh;
    location    "constant/polyMesh";
    object      boundary;
}
// * * * * * * * * * * * * * * * * * * * * * * * * * * * * * * * * * * * * * //

8
(
    y1
    {
        type            cyclic;
        inGroups        1(cyclic);
        nFaces          325;
        startFace       22358;
        matchTolerance  0.0001;
        transform       unknown;
        neighbourPatch  y0;
    }
    y0
    {
        type            cyclic;
        inGroups        1(cyclic);
        nFaces          325;
        startFace       22683;
        matchTolerance  0.0001;
        transform       unknown;
        neighbourPatch  y1;
    }
    x0
    {
        type            cyclic;
        inGroups        1(cyclic);
        nFaces          0;
        startFace       23008;
        matchTolerance  0.0001;
        transform       unknown;
        neighbourPatch  x1;
    }
    x1
    {
        type            cyclic;
        inGroups        1(cyclic);
        nFaces          0;
        startFace       23008;
        matchTolerance  0.0001;
        transform       unknown;
        neighbourPatch  x0;
    }
    z0
    {
        type            cyclic;
        inGroups        1(cyclic);
        nFaces          325;
        startFace       23008;
        matchTolerance  0.0001;
        transform       unknown;
        neighbourPatch  z1;
    }
    z1
    {
        type            cyclic;
        inGroups        1(cyclic);
        nFaces          325;
        startFace       23333;
        matchTolerance  0.0001;
        transform       unknown;
        neighbourPatch  z0;
    }
    procBoundary1to0
    {
        type            processor;
        inGroups        1(processor);
        nFaces          687;
        startFace       23658;
        matchTolerance  0.0001;
        transform       unknown;
        myProcNo        1;
        neighbProcNo    0;
    }
    procBoundary1to0throughx1
    {
        type            processorCyclic;
        inGroups        1(processorCyclic);
        nFaces          625;
        startFace       24345;
        matchTolerance  0.0001;
        transform       unknown;
        myProcNo        1;
        neighbProcNo    0;
        referPatch      x1;
    }
)

// ************************************************************************* //
