/*--------------------------------*- C++ -*----------------------------------*\
  =========                 |
  \\      /  F ield         | OpenFOAM: The Open Source CFD Toolbox
   \\    /   O peration     | Website:  https://openfoam.org
    \\  /    A nd           | Version:  6
     \\/     M anipulation  |
\*---------------------------------------------------------------------------*/
FoamFile
{
    version     2.0;
    format      ascii;
    class       polyBoundaryMesh;
    location    "constant/polyMesh";
    object      boundary;
}
// * * * * * * * * * * * * * * * * * * * * * * * * * * * * * * * * * * * * * //

3
(
    movingWall
    {
        type            wall;
        inGroups        1(wall);
        nFaces          400;
        startFace       22800;
    }
    fixedWalls
    {
        type            wall;
        inGroups        1(wall);
        nFaces          1200;
        startFace       23200;
    }
    frontAndBack
    {
        type            wall;
        inGroups        1(wall);
        nFaces          800;
        startFace       24400;
    }
)

// ************************************************************************* //
